34Bus/Test runs/20_Switching/ieee34-1_Curr_Elem.Txt

CIRCUIT ELEMENT CURRENTS

(Currents into element from indicated bus)

Power Delivery Elements

  Bus     Phase    Magnitude, A     Angle      (Real)   +j  (Imag)

ELEMENT = "Vsource.SOURCE"
SOURCEBUS     1           12.964 /_ -155.7 =    -11.819 +j   -5.3287
SOURCEBUS     2           11.487 /_   93.2 =   -0.63667 +j     11.47
SOURCEBUS     3           13.887 /_  -26.2 =     12.455 +j   -6.1409
------------
SOURCEBUS     0           12.964 /_   24.3 =     11.819 +j    5.3287
SOURCEBUS     0           11.487 /_  -86.8 =    0.63667 +j    -11.47
SOURCEBUS     0           13.887 /_  153.8 =    -12.455 +j    6.1409

ELEMENT = "Transformer.SUBXF"
SOURCEBUS     1           12.964 /_   24.3 =     11.819 +j    5.3287
SOURCEBUS     2           11.487 /_  -86.8 =    0.63667 +j    -11.47
SOURCEBUS     3           13.887 /_  153.8 =    -12.455 +j    6.1409
SOURCEBUS     0                0 /_    0.0 =          0 +j         0
------------
800           1           40.712 /_  173.7 =    -40.468 +j    4.4452
800           2           34.141 /_   61.6 =     16.257 +j    30.022
800           3           31.614 /_  -52.3 =     19.314 +j   -25.028
800           0           10.634 /_  -62.6 =     4.8979 +j   -9.4391

ELEMENT = "Line.L1"
800           1           40.712 /_   -6.3 =     40.468 +j   -4.4452
800           2           34.141 /_ -118.4 =    -16.257 +j   -30.022
800           3           31.614 /_  127.7 =    -19.314 +j    25.028
------------
802           1            40.72 /_  173.7 =    -40.472 +j    4.4939
802           2           34.134 /_   61.5 =     16.293 +j    29.994
802           3            31.61 /_  -52.4 =     19.278 +j   -25.051

ELEMENT = "Line.L2"
802           1            40.72 /_   -6.3 =     40.472 +j   -4.4939
802           2           33.157 /_ -117.6 =    -15.365 +j   -29.383
802           3           30.856 /_  128.6 =    -19.267 +j    24.101
------------
806           1           40.726 /_  173.6 =    -40.474 +j    4.5264
806           2           33.152 /_   62.3 =     15.389 +j    29.364
806           3           30.853 /_  -51.4 =     19.243 +j   -24.117

ELEMENT = "Line.L3"
806           1           40.726 /_   -6.4 =     40.474 +j   -4.5264
806           2           32.184 /_ -116.7 =    -14.459 +j   -28.753
806           3           30.109 /_  129.7 =    -19.232 +j    23.166
------------
808           1           40.835 /_  172.8 =    -40.512 +j    5.1267
808           2            32.08 /_   62.3 =      14.91 +j    28.405
808           3           30.051 /_  -51.3 =     18.794 +j   -23.449

ELEMENT = "Line.L4"
808           2          0.59815 /_ -142.4 =   -0.47396 +j   -0.3649
------------
810           2          0.62687 /_   31.7 =    0.53339 +j   0.32934

ELEMENT = "Line.L5"
808           1           40.835 /_   -7.2 =     40.512 +j   -5.1267
808           2           31.002 /_ -116.6 =    -13.902 +j   -27.711
808           3           30.051 /_  128.7 =    -18.794 +j    23.449
------------
812           1           40.961 /_  171.8 =    -40.547 +j    5.8101
812           2           30.877 /_   62.2 =     14.415 +j    27.306
812           3           29.987 /_  -52.4 =     18.287 +j   -23.766

ELEMENT = "Line.L6"
812           1           40.961 /_   -8.2 =     40.547 +j   -5.8101
812           2           30.877 /_ -117.8 =    -14.415 +j   -27.306
812           3           29.987 /_  127.6 =    -18.287 +j    23.766
------------
814           1            41.06 /_  171.1 =    -40.568 +j    6.3402
814           2           30.782 /_   61.2 =     14.812 +j    26.984
814           3           29.939 /_  -53.3 =     17.887 +j   -24.009

ELEMENT = "Line.L7"
814R          1           38.874 /_   -8.9 =     38.408 +j   -6.0012
814R          2           30.591 /_ -118.8 =    -14.719 +j   -26.817
814R          3           29.753 /_  126.7 =    -17.777 +j    23.859
------------
850           1           38.874 /_  171.1 =    -38.408 +j    6.0013
850           2           30.591 /_   61.2 =     14.719 +j    26.817
850           3           29.753 /_  -53.3 =     17.777 +j   -23.859

ELEMENT = "Line.L8"
816           1           12.945 /_  -26.7 =     11.565 +j   -5.8158
------------
818           1           12.953 /_  153.2 =    -11.564 +j    5.8359

ELEMENT = "Line.L9"
816           1           26.843 /_   -0.4 =     26.843 +j  -0.19106
816           2           30.482 /_ -118.8 =    -14.679 +j   -26.715
816           3             29.7 /_  126.9 =    -17.817 +j    23.763
------------
824           1            26.85 /_  179.2 =    -26.848 +j   0.37074
824           2           30.451 /_   60.9 =     14.809 +j    26.607
824           3           29.685 /_  -53.4 =     17.684 +j   -23.843

ELEMENT = "Line.L10"
818           1           11.601 /_  -26.5 =     10.379 +j   -5.1822
------------
820           1           11.842 /_  151.0 =    -10.356 +j    5.7423

ELEMENT = "Line.L11"
820           1           5.2326 /_  -28.2 =     4.6095 +j   -2.4765
------------
822           1           5.3034 /_  150.2 =    -4.6029 +j    2.6342

ELEMENT = "Line.L12"
824           2           1.5399 /_ -148.1 =    -1.3079 +j  -0.81283
------------
826           2           1.5554 /_   30.7 =     1.3377 +j   0.79367

ELEMENT = "Line.L13"
824           1            26.85 /_   -0.8 =     26.848 +j  -0.37074
824           2           27.695 /_ -116.0 =    -12.119 +j   -24.902
824           3           29.507 /_  126.9 =    -17.725 +j     23.59
------------
828           1           26.851 /_  179.2 =    -26.848 +j   0.38547
828           2           27.691 /_   64.0 =      12.13 +j    24.893
828           3           29.506 /_  -53.1 =     17.714 +j   -23.597

ELEMENT = "Line.L14"
828           1           26.615 /_   -0.6 =     26.613 +j  -0.27276
828           2           27.691 /_ -116.0 =     -12.13 +j   -24.893
828           3           29.381 /_  127.1 =    -17.711 +j    23.443
------------
830           1           26.629 /_  178.6 =    -26.621 +j   0.62902
830           2           27.612 /_   63.3 =     12.387 +j    24.678
830           3           29.348 /_  -53.5 =     17.447 +j     -23.6

ELEMENT = "Line.L15"
830           1           25.627 /_    0.2 =     25.627 +j   0.10136
830           2           27.156 /_ -116.0 =    -11.915 +j   -24.403
830           3           28.464 /_  127.1 =    -17.161 +j     22.71
------------
854           1           25.627 /_ -179.8 =    -25.627 +j -0.092355
854           2           27.154 /_   64.0 =     11.922 +j    24.397
854           3           28.463 /_  -52.9 =     17.154 +j   -22.713

ELEMENT = "Line.L16"
832           1           17.506 /_   12.7 =      17.08 +j    3.8369
832           2           19.272 /_ -103.5 =    -4.4955 +j    -18.74
832           3           21.011 /_  139.8 =    -16.054 +j    13.554
------------
858           1           17.487 /_ -167.6 =    -17.081 +j   -3.7488
858           2           19.233 /_   76.3 =     4.5576 +j    18.686
858           3           20.985 /_  -40.4 =     15.989 +j   -13.591

ELEMENT = "Line.L17"
834           1           7.7157 /_  -39.6 =      5.942 +j   -4.9218
834           2           7.6179 /_ -154.8 =    -6.8912 +j   -3.2469
834           3           7.1802 /_   96.9 =   -0.86011 +j    7.1285
------------
860           1           7.7389 /_  140.2 =    -5.9422 +j     4.958
860           2           7.6314 /_   25.0 =     6.9167 +j    3.2245
860           3           7.1921 /_  -83.3 =    0.83301 +j   -7.1437

ELEMENT = "Line.L18"
834           1           14.451 /_   51.8 =      8.928 +j    11.363
834           2           14.795 /_  -76.9 =     3.3656 +j   -14.407
834           3           14.362 /_  169.0 =    -14.096 +j    2.7497
------------
842           1           14.447 /_ -128.2 =     -8.928 +j   -11.358
842           2           14.791 /_  103.1 =    -3.3621 +j    14.404
842           3           14.358 /_  -11.0 =     14.092 +j   -2.7518

ELEMENT = "Line.L19"
836           1          0.89451 /_  -23.5 =    0.82049 +j   -0.3563
836           2            1.318 /_ -152.9 =    -1.1736 +j  -0.59999
836           3           1.0249 /_   69.8 =    0.35385 +j   0.96184
------------
840           1          0.90081 /_  155.6 =   -0.82054 +j    0.3717
840           2           1.3234 /_   26.5 =     1.1844 +j   0.59047
840           3            1.035 /_ -110.7 =   -0.36538 +j  -0.96831

ELEMENT = "Line.L20"
836           1        0.0050136 /_   90.2 =  -1.8935E-005 +j 0.0050136
836           2           2.0892 /_ -149.3 =    -1.7957 +j   -1.0679
836           3        0.0043055 /_ -150.7 =  -0.0037543 +j -0.0021078
------------
862           1      2.1828E-011 /_   90.0 =          0 +j 2.1828E-011
862           2           2.0907 /_   30.6 =     1.7993 +j    1.0648
862           3       2.933E-011 /_   82.9 =  3.638E-012 +j 2.9104E-011

ELEMENT = "Line.L21"
842           1           14.426 /_   52.8 =     8.7252 +j    11.488
842           2           14.791 /_  -76.9 =     3.3621 +j   -14.404
842           3           14.358 /_  169.0 =    -14.092 +j    2.7518
------------
844           1           14.406 /_ -127.3 =    -8.7253 +j   -11.464
844           2           14.773 /_  103.1 =    -3.3451 +j    14.389
844           3           14.342 /_  -11.1 =     14.074 +j    -2.762

ELEMENT = "Line.L22"
844           1           10.225 /_   81.2 =     1.5724 +j    10.103
844           2           9.6286 /_  -50.2 =     6.1589 +j   -7.4012
844           3            9.897 /_ -162.2 =    -9.4238 +j   -3.0237
------------
846           1            10.16 /_  -98.9 =    -1.5726 +j   -10.038
846           2           9.5683 /_  129.7 =    -6.1131 +j    7.3608
846           3           9.8421 /_   17.7 =     9.3749 +j    2.9963

ELEMENT = "Line.L23"
846           1            10.16 /_   81.1 =     1.5726 +j    10.038
846           2           9.8579 /_  -43.1 =     7.2025 +j   -6.7306
846           3           10.044 /_ -159.4 =    -9.4014 +j   -3.5353
------------
848           1           10.151 /_  -98.9 =    -1.5726 +j   -10.028
848           2            9.849 /_  136.9 =    -7.1958 +j    6.7247
848           3           10.036 /_   20.6 =     9.3943 +j    3.5314

ELEMENT = "Line.L24"
850           1           38.874 /_   -8.9 =     38.408 +j   -6.0013
850           2           30.591 /_ -118.8 =    -14.719 +j   -26.817
850           3           29.753 /_  126.7 =    -17.777 +j    23.859
------------
816           1           38.875 /_  171.1 =    -38.408 +j    6.0068
816           2            30.59 /_   61.2 =     14.723 +j    26.814
816           3           29.753 /_  -53.3 =     17.773 +j   -23.861

ELEMENT = "Line.L25"
852R          1           24.133 /_   -1.2 =     24.127 +j   -0.5057
852R          2           25.449 /_ -117.5 =    -11.743 +j   -22.578
852R          3           26.889 /_  126.0 =    -15.795 +j     21.76
------------
832           1           24.133 /_  178.8 =    -24.127 +j   0.50588
832           2           25.449 /_   62.5 =     11.743 +j    22.578
832           3           26.889 /_  -54.0 =     15.795 +j    -21.76

ELEMENT = "Transformer.XFM1"
832           1            8.186 /_  -31.7 =     6.9648 +j   -4.3015
832           2           8.1743 /_ -152.1 =    -7.2241 +j   -3.8252
832           3           8.1305 /_   88.2 =    0.25903 +j    8.1264
832           0       0.00033261 /_   38.4 =  0.00026052 +j 0.00020678
------------
888           1           48.998 /_  148.3 =    -41.688 +j    25.747
888           2           48.928 /_   27.9 =      43.24 +j    22.896
888           3           48.666 /_  -91.8 =    -1.5504 +j   -48.641
888           0        0.0019908 /_ -141.6 =  -0.0015593 +j -0.0012377

ELEMENT = "Line.L26"
854           2          0.24342 /_  -67.9 =   0.091396 +j  -0.22561
------------
856           2          0.15495 /_   30.2 =    0.13393 +j  0.077911

ELEMENT = "Line.L27"
854           1           25.627 /_    0.2 =     25.627 +j  0.092355
854           2           26.863 /_ -116.2 =    -11.879 +j   -24.094
854           3           28.463 /_  127.1 =    -17.154 +j    22.713
------------
852           1           25.641 /_  178.8 =    -25.635 +j   0.53877
852           2           26.722 /_   62.5 =     12.331 +j    23.706
852           3           28.401 /_  -54.0 =     16.682 +j   -22.985

ELEMENT = "Line.L28"
858           1         0.046839 /_   -8.2 =   0.046358 +j -0.0066975
------------
864           1         0.052186 /_  150.0 =  -0.045189 +j  0.026103

ELEMENT = "Line.L29"
858           1           17.201 /_   13.7 =     16.711 +j    4.0757
858           2           18.888 /_ -103.2 =    -4.2979 +j   -18.392
858           3           20.624 /_  141.0 =     -16.03 +j    12.978
------------
834           1           17.177 /_ -166.6 =    -16.711 +j   -3.9711
834           2           18.842 /_   76.6 =     4.3716 +j    18.327
834           3           20.591 /_  -39.2 =     15.951 +j   -13.022

ELEMENT = "Line.L30"
860           1           2.5749 /_  -25.9 =     2.3171 +j   -1.1229
860           2           4.9377 /_ -152.3 =    -4.3708 +j   -2.2971
860           3           2.3722 /_   83.9 =    0.25263 +j    2.3587
------------
836           1           2.5963 /_  153.2 =    -2.3173 +j    1.1709
836           2           4.9539 /_   27.2 =     4.4046 +j    2.2674
836           3           2.3963 /_  -96.9 =   -0.28857 +j   -2.3789

ELEMENT = "Line.L31"
862           2           1.0332 /_ -147.9 =   -0.87516 +j  -0.54913
------------
838           2           1.0584 /_   29.2 =    0.92425 +j   0.51567

ELEMENT = "Line.L32"
888           1           48.998 /_  -31.7 =     41.688 +j   -25.747
888           2           48.928 /_ -152.1 =     -43.24 +j   -22.896
888           3           48.666 /_   88.2 =     1.5504 +j    48.641
------------
890           1           49.014 /_  148.3 =    -41.688 +j    25.778
890           2           48.938 /_   27.9 =     43.262 +j    22.876
890           3           48.679 /_  -91.9 =     -1.574 +j   -48.654

ELEMENT = "Capacitor.C844"
844           1           7.2424 /_   86.4 =    0.44997 +j    7.2284
844           2           7.1611 /_  -34.3 =     5.9156 +j   -4.0358
844           3           7.1609 /_ -154.0 =    -6.4336 +j   -3.1443
------------
844           0           7.2424 /_  -93.6 =   -0.44997 +j   -7.2284
844           0           7.1611 /_  145.7 =    -5.9156 +j    4.0358
844           0           7.1609 /_   26.0 =     6.4336 +j    3.1443

ELEMENT = "Capacitor.C848"
848           1           10.867 /_   86.4 =    0.68522 +j    10.846
848           2           10.743 /_  -34.4 =     8.8692 +j   -6.0628
848           3           10.745 /_ -154.0 =    -9.6586 +j   -4.7086
------------
848           0           10.867 /_  -93.6 =   -0.68522 +j   -10.846
848           0           10.743 /_  145.6 =    -8.8692 +j    6.0628
848           0           10.745 /_   26.0 =     9.6586 +j    4.7086

ELEMENT = "Transformer.REG1A"
814           1            41.06 /_   -8.9 =     40.568 +j   -6.3402
814           0            41.06 /_  171.1 =    -40.568 +j    6.3395
------------
814R          1           38.874 /_  171.1 =    -38.408 +j    6.0012
814R          0           38.874 /_   -8.9 =     38.408 +j   -6.0019

ELEMENT = "Transformer.REG1B"
814           2           30.782 /_ -118.8 =    -14.812 +j   -26.984
814           0           30.782 /_   61.2 =     14.812 +j    26.984
------------
814R          2           30.591 /_   61.2 =     14.719 +j    26.817
814R          0           30.591 /_ -118.8 =     -14.72 +j   -26.817

ELEMENT = "Transformer.REG1C"
814           3           29.939 /_  126.7 =    -17.887 +j    24.009
814           0           29.939 /_  -53.3 =     17.887 +j   -24.008
------------
814R          3           29.753 /_  -53.3 =     17.777 +j   -23.859
814R          0           29.753 /_  126.7 =    -17.776 +j    23.859

ELEMENT = "Transformer.REG2A"
852           1           25.641 /_   -1.2 =     25.635 +j  -0.53877
852           0           25.641 /_  178.8 =    -25.635 +j   0.53808
------------
852R          1           24.133 /_  178.8 =    -24.127 +j    0.5057
852R          0           24.133 /_   -1.2 =     24.127 +j  -0.50643

ELEMENT = "Transformer.REG2B"
852           2           26.722 /_ -117.5 =    -12.331 +j   -23.706
852           0           26.722 /_   62.5 =     12.331 +j    23.707
------------
852R          2           25.449 /_   62.5 =     11.743 +j    22.578
852R          0           25.449 /_ -117.5 =    -11.743 +j   -22.578

ELEMENT = "Transformer.REG2C"
852           3           28.401 /_  126.0 =    -16.682 +j    22.985
852           0           28.401 /_  -54.0 =     16.683 +j   -22.985
------------
852R          3           26.889 /_  -54.0 =     15.795 +j    -21.76
852R          0           26.889 /_  126.0 =    -15.795 +j    21.761

= = = = = = = = = = = = = = = = = = =  = = = = = = = = = = =  = =

Power Conversion Elements

  Bus     Phase    Magnitude, A     Angle      (Real)   +j  (Imag)

ELEMENT = "Load.S860"
860           1           1.1982 /_  -42.2 =    0.88782 +j   -0.8046
860           2           1.2117 /_ -162.9 =    -1.1583 +j  -0.35562
860           3           1.2117 /_   77.4 =    0.26398 +j    1.1826
860           0         0.023344 /_  -73.8 =  0.0064939 +j -0.022423

ELEMENT = "Load.S840"
840           1          0.55518 /_  -41.4 =    0.41646 +j  -0.36713
840           2          0.55518 /_ -162.1 =   -0.52845 +j  -0.17018
840           3          0.55518 /_   78.2 =    0.11351 +j   0.54345
840           0        0.0063241 /_ -103.9 =  -0.0015209 +j -0.0061385

ELEMENT = "Load.S844"
844           1           8.6705 /_  -41.4 =     6.5001 +j   -5.7381
844           2           8.5732 /_ -162.2 =    -8.1618 +j   -2.6239
844           3           8.5729 /_   78.2 =     1.7573 +j    8.3908
844           0         0.099904 /_ -163.2 =  -0.095649 +j -0.028844

ELEMENT = "Load.S848"
848           1           1.2065 /_  -42.7 =    0.88739 +j  -0.81743
848           2           1.2066 /_ -162.7 =    -1.1517 +j  -0.35976
848           3           1.2065 /_   77.3 =    0.26431 +j    1.1772

ELEMENT = "Load.S830A"
830           1          0.31651 /_    0.4 =     0.3165 +j 0.0022722
830           2          0.31651 /_ -179.6 =    -0.3165 +j -0.0022722

ELEMENT = "Load.S830B"
830           2          0.31392 /_ -119.6 =   -0.15515 +j   -0.2729
830           3          0.31392 /_   60.4 =    0.15515 +j    0.2729

ELEMENT = "Load.S830C"
830           3          0.75879 /_  125.6 =   -0.44136 +j   0.61723
830           1          0.75879 /_  -54.4 =    0.44136 +j  -0.61723

ELEMENT = "Load.S890"
890           1           49.014 /_  -31.7 =     41.688 +j   -25.778
890           2           48.938 /_ -152.1 =    -43.262 +j   -22.876
890           3           48.679 /_   88.1 =      1.574 +j    48.654

ELEMENT = "Load.D858_864SB"
858           1         0.052186 /_  -30.0 =   0.045189 +j -0.026103
858           0         0.052186 /_  150.0 =  -0.045189 +j  0.026103

ELEMENT = "Load.D858_864RB"
864           1         0.052186 /_  -30.0 =   0.045189 +j -0.026103
864           0         0.052186 /_  150.0 =  -0.045189 +j  0.026103

ELEMENT = "Load.D858_834SA"
858           1         0.060383 /_   -0.6 =    0.06038 +j -0.0005806
858           2         0.060383 /_  179.4 =   -0.06038 +j 0.0005806

ELEMENT = "Load.D858_834RA"
834           1         0.060484 /_   -0.6 =    0.06048 +j -0.00068543
834           2         0.060484 /_  179.4 =   -0.06048 +j 0.00068543

ELEMENT = "Load.D842_844SA"
842           1          0.24073 /_  -32.6 =    0.20282 +j  -0.12967
842           0          0.24073 /_  147.4 =   -0.20282 +j   0.12967

ELEMENT = "Load.D842_844RA"
844           1          0.24075 /_  -32.6 =    0.20278 +j  -0.12977
844           0          0.24075 /_  147.4 =   -0.20278 +j   0.12977

ELEMENT = "Load.D844_846SB"
844           2           0.6558 /_ -149.9 =   -0.56762 +j  -0.32845
844           0           0.6558 /_   30.1 =    0.56762 +j   0.32845

ELEMENT = "Load.D844_846RB"
846           2          0.65573 /_ -150.0 =   -0.56782 +j  -0.32796
846           0          0.65573 /_   30.0 =    0.56782 +j   0.32796

ELEMENT = "Load.D844_846SC"
844           3          0.53981 /_   87.2 =   0.026036 +j   0.53919
844           0          0.53981 /_  -92.8 =  -0.026036 +j  -0.53919

ELEMENT = "Load.D844_846RC"
846           3          0.53964 /_   87.2 =   0.026499 +j   0.53899
846           0          0.53964 /_  -92.8 =  -0.026499 +j  -0.53899

ELEMENT = "Load.D846_848SB"
846           2          0.60286 /_ -149.9 =   -0.52161 +j  -0.30226
846           0          0.60286 /_   30.1 =    0.52161 +j   0.30226

ELEMENT = "Load.D846_848RB"
848           2          0.60284 /_ -149.9 =   -0.52163 +j  -0.30219
848           0          0.60284 /_   30.1 =    0.52163 +j   0.30219

ELEMENT = "Load.D802_806SB"
802           2           1.1121 /_ -146.6 =   -0.92874 +j  -0.61171
802           0           1.1121 /_   33.4 =    0.92874 +j   0.61171

ELEMENT = "Load.D802_806RB"
806           2           1.1128 /_ -146.7 =   -0.92975 +j  -0.61139
806           0           1.1128 /_   33.3 =    0.92975 +j   0.61139

ELEMENT = "Load.D802_806SC"
802           3          0.95004 /_   90.7 =  -0.011627 +j   0.94996
802           0          0.95004 /_  -89.3 =   0.011627 +j  -0.94996

ELEMENT = "Load.D802_806RC"
806           3          0.95064 /_   90.7 =  -0.011101 +j   0.95057
806           0          0.95064 /_  -89.3 =   0.011101 +j  -0.95057

ELEMENT = "Load.D808_810SB"
808           2          0.62689 /_ -148.3 =   -0.53343 +j  -0.32932
808           0          0.62689 /_   31.7 =    0.53343 +j   0.32932

ELEMENT = "Load.D808_810RB"
810           2          0.62687 /_ -148.3 =   -0.53339 +j  -0.32934
810           0          0.62687 /_   31.7 =    0.53339 +j   0.32934

ELEMENT = "Load.D818_820SA"
818           1           1.3536 /_  -28.9 =     1.1853 +j  -0.65372
818           0           1.3536 /_  151.1 =    -1.1853 +j   0.65372

ELEMENT = "Load.D818_820RA"
820           1           1.3225 /_  -28.9 =     1.1574 +j  -0.63986
820           0           1.3225 /_  151.1 =    -1.1574 +j   0.63986

ELEMENT = "Load.D820_822SA"
820           1           5.2874 /_  -29.8 =     4.5892 +j   -2.6259
820           0           5.2874 /_  150.2 =    -4.5892 +j    2.6259

ELEMENT = "Load.D820_822RA"
822           1           5.3034 /_  -29.8 =     4.6029 +j   -2.6342
822           0           5.3034 /_  150.2 =    -4.6029 +j    2.6342

ELEMENT = "Load.D816_824SB"
816           2          0.10814 /_ -114.1 =  -0.044157 +j -0.098709
816           3          0.10814 /_   65.9 =   0.044157 +j  0.098709

ELEMENT = "Load.D816_824RB"
824           2          0.10814 /_ -114.3 =  -0.044565 +j -0.098526
824           3          0.10814 /_   65.7 =   0.044565 +j  0.098526

ELEMENT = "Load.D828_830SA"
828           1          0.26023 /_  -25.7 =    0.23456 +j  -0.11271
828           0          0.26023 /_  154.3 =   -0.23456 +j   0.11271

ELEMENT = "Load.D828_830RA"
830           1          0.26348 /_  -26.0 =    0.23686 +j  -0.11543
830           0          0.26348 /_  154.0 =   -0.23686 +j   0.11543

ELEMENT = "Load.D854_856SB"
854           2          0.15493 /_ -149.8 =   -0.13391 +j  -0.07792
854           0          0.15493 /_   30.2 =    0.13391 +j   0.07792

ELEMENT = "Load.D854_856RB"
856           2          0.15495 /_ -149.8 =   -0.13393 +j -0.077911
856           0          0.15495 /_   30.2 =    0.13393 +j  0.077911

ELEMENT = "Load.D832_858SA"
832           1         0.092254 /_  -26.6 =   0.082506 +j -0.041272
832           0         0.092254 /_  153.4 =  -0.082506 +j  0.041272

ELEMENT = "Load.D832_858RA"
858           1         0.092106 /_  -26.6 =   0.082323 +j -0.041307
858           0         0.092106 /_  153.4 =  -0.082323 +j  0.041307

ELEMENT = "Load.D832_858SB"
832           2         0.026782 /_ -150.6 =  -0.023338 +j -0.013137
832           0         0.026782 /_   29.4 =   0.023338 +j  0.013137

ELEMENT = "Load.D832_858RB"
858           2          0.02674 /_ -150.7 =  -0.023325 +j -0.013077
858           0          0.02674 /_   29.3 =   0.023325 +j  0.013077

ELEMENT = "Load.D832_858SC"
832           3         0.080324 /_   89.8 =  0.00032599 +j  0.080324
832           0         0.080324 /_  -90.2 =  -0.00032599 +j -0.080324

ELEMENT = "Load.D832_858RC"
858           3         0.080204 /_   89.7 =  0.00048674 +j  0.080202
858           0         0.080204 /_  -90.3 =  -0.00048674 +j -0.080202

ELEMENT = "Load.D824_826SB"
824           2           1.5554 /_ -149.3 =    -1.3377 +j  -0.79368
824           0           1.5554 /_   30.7 =     1.3377 +j   0.79368

ELEMENT = "Load.D824_826RB"
826           2           1.5554 /_ -149.3 =    -1.3377 +j  -0.79367
826           0           1.5554 /_   30.7 =     1.3377 +j   0.79367

ELEMENT = "Load.D824_828SC"
824           3          0.15385 /_   91.3 =  -0.0034431 +j   0.15381
824           0          0.15385 /_  -88.7 =  0.0034431 +j  -0.15381

ELEMENT = "Load.D824_828RC"
828           3          0.15392 /_   91.3 =  -0.0033875 +j   0.15388
828           0          0.15392 /_  -88.7 =  0.0033875 +j  -0.15388

ELEMENT = "Load.D834_860SA"
834           1          0.37333 /_   -0.6 =     0.3733 +j -0.0042308
834           2          0.37333 /_  179.4 =    -0.3733 +j 0.0042308

ELEMENT = "Load.D834_860RA"
860           1           0.3732 /_   -0.6 =    0.37317 +j -0.0042097
860           2           0.3732 /_  179.4 =   -0.37317 +j 0.0042097

ELEMENT = "Load.D834_860SB"
834           2          0.46148 /_ -120.7 =   -0.23535 +j  -0.39695
834           3          0.46148 /_   59.3 =    0.23535 +j   0.39695

ELEMENT = "Load.D834_860RB"
860           2          0.46132 /_ -120.7 =   -0.23528 +j  -0.39682
860           3          0.46132 /_   59.3 =    0.23528 +j   0.39682

ELEMENT = "Load.D834_860SC"
834           3            2.552 /_  119.9 =     -1.272 +j    2.2123
834           1            2.552 /_  -60.1 =      1.272 +j   -2.2123

ELEMENT = "Load.D834_860RC"
860           3           2.5509 /_  119.9 =    -1.2716 +j    2.2114
860           1           2.5509 /_  -60.1 =     1.2716 +j   -2.2114

ELEMENT = "Load.D860_836SA"
860           1          0.64826 /_   -0.6 =    0.64822 +j -0.0073124
860           2          0.64826 /_  179.4 =   -0.64822 +j 0.0073124

ELEMENT = "Load.D860_836RA"
836           1          0.64842 /_   -0.6 =    0.64838 +j -0.0073386
836           2          0.64842 /_  179.4 =   -0.64838 +j 0.0073386

ELEMENT = "Load.D860_836SB"
860           2          0.22793 /_ -125.1 =   -0.13094 +j  -0.18656
860           3          0.22793 /_   54.9 =    0.13094 +j   0.18656

ELEMENT = "Load.D860_836RB"
836           2          0.22798 /_ -125.1 =   -0.13096 +j  -0.18661
836           3          0.22798 /_   54.9 =    0.13096 +j   0.18661

ELEMENT = "Load.D860_836SC"
860           3           0.9217 /_  118.8 =   -0.44428 +j   0.80755
860           1           0.9217 /_  -61.2 =    0.44428 +j  -0.80755

ELEMENT = "Load.D860_836RC"
836           3          0.92185 /_  118.8 =   -0.44436 +j   0.80768
836           1          0.92185 /_  -61.2 =    0.44436 +j  -0.80768

ELEMENT = "Load.D836_840SA"
836           1          0.40411 /_   -0.6 =    0.40408 +j -0.0045736
836           2          0.40411 /_  179.4 =   -0.40408 +j 0.0045736

ELEMENT = "Load.D836_840RA"
840           1          0.40411 /_   -0.6 =    0.40408 +j -0.0045745
840           2          0.40411 /_  179.4 =   -0.40408 +j 0.0045745

ELEMENT = "Load.D836_840SB"
836           2          0.49391 /_ -120.7 =   -0.25187 +j  -0.42486
836           3          0.49391 /_   59.3 =    0.25187 +j   0.42486

ELEMENT = "Load.D836_840RB"
840           2          0.49391 /_ -120.7 =   -0.25187 +j  -0.42486
840           3          0.49391 /_   59.3 =    0.25187 +j   0.42486

ELEMENT = "Load.D858_834SB"
858           2           0.3316 /_ -122.0 =   -0.17595 +j  -0.28107
858           3           0.3316 /_   58.0 =    0.17595 +j   0.28107

ELEMENT = "Load.D858_834RB"
834           2          0.33214 /_ -122.2 =   -0.17685 +j  -0.28115
834           3          0.33214 /_   57.8 =    0.17685 +j   0.28115

ELEMENT = "Load.D858_834SC"
858           3          0.28632 /_  118.3 =   -0.13563 +j   0.25216
858           1          0.28632 /_  -61.7 =    0.13563 +j  -0.25216

ELEMENT = "Load.D858_834RC"
834           3          0.28691 /_  118.2 =   -0.13541 +j   0.25294
834           1          0.28691 /_  -61.8 =    0.13541 +j  -0.25294

ELEMENT = "Load.D862_838SB"
862           2           1.0582 /_ -150.8 =   -0.92409 +j  -0.51562
862           0           1.0582 /_   29.2 =    0.92409 +j   0.51562

ELEMENT = "Load.D862_838RB"
838           2           1.0584 /_ -150.8 =   -0.92425 +j  -0.51567
838           0           1.0584 /_   29.2 =    0.92425 +j   0.51567

